# generated using pymatgen
data_SiO2
_symmetry_space_group_name_H-M   'P 1'
_cell_length_a   5.27563036
_cell_length_b   5.27563036
_cell_length_c   21.75198120
_cell_angle_alpha   83.03472272
_cell_angle_beta   83.03472272
_cell_angle_gamma   60.00000000
_symmetry_Int_Tables_number   1
_chemical_formula_structural   SiO2
_chemical_formula_sum   'Si6 O12'
_cell_volume   519.13233704
_cell_formula_units_Z   6
loop_
 _symmetry_equiv_pos_site_id
 _symmetry_equiv_pos_as_xyz
  1  'x, y, z'
loop_
 _atom_site_type_symbol
 _atom_site_label
 _atom_site_symmetry_multiplicity
 _atom_site_fract_x
 _atom_site_fract_y
 _atom_site_fract_z
 _atom_site_occupancy
  O  O0  1  0.30000000  0.80000000  0.68333333  1.0
  O  O1  1  0.80000000  0.30000000  0.68333333  1.0
  O  O2  1  0.60000000  0.60000000  0.78333333  1.0
  O  O3  1  0.80000000  0.80000000  0.68333333  1.0
  O  O4  1  0.70000000  0.20000000  0.48333333  1.0
  O  O5  1  0.20000000  0.70000000  0.48333333  1.0
  O  O6  1  1.00000000  0.00000000  0.58333333  1.0
  O  O7  1  0.20000000  0.20000000  0.48333333  1.0
  O  O8  1  0.10000000  0.60000000  0.28333333  1.0
  O  O9  1  0.60000000  0.10000000  0.28333333  1.0
  O  O10  1  0.40000000  0.40000000  0.38333333  1.0
  O  O11  1  0.60000000  0.60000000  0.28333333  1.0
  Si  Si12  1  0.62500000  0.62500000  0.70833333  1.0
  Si  Si13  1  0.97500000  0.97500000  0.65833333  1.0
  Si  Si14  1  0.02500000  0.02500000  0.50833333  1.0
  Si  Si15  1  0.37500000  0.37500000  0.45833333  1.0
  Si  Si16  1  0.42500000  0.42500000  0.30833333  1.0
  Si  Si17  1  0.77500000  0.77500000  0.25833333  1.0
