# generated using pymatgen
data_SiO2
_symmetry_space_group_name_H-M   'P 1'
_cell_length_a   5.27563036
_cell_length_b   12.92260244
_cell_length_c   18.27531964
_cell_angle_alpha   90.00000000
_cell_angle_beta   90.00000000
_cell_angle_gamma   90.00000000
_symmetry_Int_Tables_number   1
_chemical_formula_structural   SiO2
_chemical_formula_sum   'Si16 O32'
_cell_volume   1245.91760889
_cell_formula_units_Z   16
loop_
 _symmetry_equiv_pos_site_id
 _symmetry_equiv_pos_as_xyz
  1  'x, y, z'
loop_
 _atom_site_type_symbol
 _atom_site_label
 _atom_site_symmetry_multiplicity
 _atom_site_fract_x
 _atom_site_fract_y
 _atom_site_fract_z
 _atom_site_occupancy
  O  O0  1  0.00000000  0.06944444  0.30555556  1.0
  O  O1  1  0.00000000  0.40277778  0.47222222  1.0
  O  O2  1  0.25000000  0.56944444  0.18055556  1.0
  O  O3  1  0.25000000  0.90277778  0.34722222  1.0
  O  O4  1  0.00000000  0.23611111  0.38888889  1.0
  O  O5  1  1.00000000  0.90277778  0.22222222  1.0
  O  O6  1  0.75000000  0.90277778  0.34722222  1.0
  O  O7  1  0.75000000  0.56944444  0.18055556  1.0
  O  O8  1  0.50000000  0.73611111  0.38888889  1.0
  O  O9  1  0.50000000  0.40277778  0.22222222  1.0
  O  O10  1  0.75000000  0.56944444  0.43055556  1.0
  O  O11  1  0.75000000  0.23611111  0.26388889  1.0
  O  O12  1  0.50000000  0.56944444  0.30555556  1.0
  O  O13  1  0.50000000  0.90277778  0.47222222  1.0
  O  O14  1  0.25000000  0.56944444  0.43055556  1.0
  O  O15  1  0.25000000  0.23611111  0.26388889  1.0
  O  O16  1  0.00000000  0.73611111  0.63888889  1.0
  O  O17  1  0.00000000  0.06944444  0.80555556  1.0
  O  O18  1  0.25000000  0.23611111  0.51388889  1.0
  O  O19  1  0.25000000  0.56944444  0.68055556  1.0
  O  O20  1  0.00000000  0.90277778  0.72222222  1.0
  O  O21  1  1.00000000  0.56944444  0.55555556  1.0
  O  O22  1  0.75000000  0.56944444  0.68055556  1.0
  O  O23  1  0.75000000  0.23611111  0.51388889  1.0
  O  O24  1  0.50000000  0.40277778  0.72222222  1.0
  O  O25  1  0.50000000  0.06944444  0.55555556  1.0
  O  O26  1  0.75000000  0.23611111  0.76388889  1.0
  O  O27  1  0.75000000  0.90277778  0.59722222  1.0
  O  O28  1  0.50000000  0.23611111  0.63888889  1.0
  O  O29  1  0.50000000  0.56944444  0.80555556  1.0
  O  O30  1  0.25000000  0.23611111  0.76388889  1.0
  O  O31  1  0.25000000  0.90277778  0.59722222  1.0
  Si  Si32  1  1.00000000  0.27777778  0.47222222  1.0
  Si  Si33  1  0.00000000  0.94444444  0.30555556  1.0
  Si  Si34  1  0.50000000  0.52777778  0.22222222  1.0
  Si  Si35  1  0.50000000  0.86111111  0.38888889  1.0
  Si  Si36  1  0.50000000  0.61111111  0.38888889  1.0
  Si  Si37  1  0.50000000  0.27777778  0.22222222  1.0
  Si  Si38  1  0.00000000  0.52777778  0.47222222  1.0
  Si  Si39  1  0.00000000  0.19444444  0.30555556  1.0
  Si  Si40  1  1.00000000  0.94444444  0.80555556  1.0
  Si  Si41  1  0.00000000  0.61111111  0.63888889  1.0
  Si  Si42  1  0.50000000  0.19444444  0.55555556  1.0
  Si  Si43  1  0.50000000  0.52777778  0.72222222  1.0
  Si  Si44  1  0.50000000  0.27777778  0.72222222  1.0
  Si  Si45  1  0.50000000  0.94444444  0.55555556  1.0
  Si  Si46  1  0.00000000  0.19444444  0.80555556  1.0
  Si  Si47  1  0.00000000  0.86111111  0.63888889  1.0
