# generated using pymatgen
data_SiO2
_symmetry_space_group_name_H-M   'P 1'
_cell_length_a   5.27563036
_cell_length_b   7.46086800
_cell_length_c   15.82689107
_cell_angle_alpha   90.00000000
_cell_angle_beta   90.00000000
_cell_angle_gamma   90.00000000
_symmetry_Int_Tables_number   1
_chemical_formula_structural   SiO2
_chemical_formula_sum   'Si8 O16'
_cell_volume   622.95880444
_cell_formula_units_Z   8
loop_
 _symmetry_equiv_pos_site_id
 _symmetry_equiv_pos_as_xyz
  1  'x, y, z'
loop_
 _atom_site_type_symbol
 _atom_site_label
 _atom_site_symmetry_multiplicity
 _atom_site_fract_x
 _atom_site_fract_y
 _atom_site_fract_z
 _atom_site_occupancy
  O  O0  1  0.33333333  0.87500000  0.19444444  1.0
  O  O1  1  0.08333333  0.62500000  0.27777778  1.0
  O  O2  1  0.33333333  0.87500000  0.36111111  1.0
  O  O3  1  0.58333333  0.62500000  0.27777778  1.0
  O  O4  1  0.83333333  0.37500000  0.36111111  1.0
  O  O5  1  0.58333333  0.12500000  0.44444444  1.0
  O  O6  1  0.83333333  0.37500000  0.19444444  1.0
  O  O7  1  0.08333333  0.12500000  0.44444444  1.0
  O  O8  1  0.33333333  0.87500000  0.52777778  1.0
  O  O9  1  0.08333333  0.62500000  0.61111111  1.0
  O  O10  1  0.33333333  0.87500000  0.69444444  1.0
  O  O11  1  0.58333333  0.62500000  0.61111111  1.0
  O  O12  1  0.83333333  0.37500000  0.69444444  1.0
  O  O13  1  0.58333333  0.12500000  0.77777778  1.0
  O  O14  1  0.83333333  0.37500000  0.52777778  1.0
  O  O15  1  0.08333333  0.12500000  0.77777778  1.0
  Si  Si16  1  0.33333333  0.75000000  0.27777778  1.0
  Si  Si17  1  0.83333333  0.50000000  0.27777778  1.0
  Si  Si18  1  0.83333333  0.25000000  0.44444444  1.0
  Si  Si19  1  0.33333333  0.00000000  0.44444444  1.0
  Si  Si20  1  0.33333333  0.75000000  0.61111111  1.0
  Si  Si21  1  0.83333333  0.50000000  0.61111111  1.0
  Si  Si22  1  0.83333333  0.25000000  0.77777778  1.0
  Si  Si23  1  0.33333333  0.00000000  0.77777778  1.0
