# generated using pymatgen
data_SiO2
_symmetry_space_group_name_H-M   'P 1'
_cell_length_a   5.27563036
_cell_length_b   5.27563036
_cell_length_c   22.38260400
_cell_angle_alpha   90.00000000
_cell_angle_beta   90.00000000
_cell_angle_gamma   90.00000000
_symmetry_Int_Tables_number   1
_chemical_formula_structural   SiO2
_chemical_formula_sum   'Si8 O16'
_cell_volume   622.95880444
_cell_formula_units_Z   8
loop_
 _symmetry_equiv_pos_site_id
 _symmetry_equiv_pos_as_xyz
  1  'x, y, z'
loop_
 _atom_site_type_symbol
 _atom_site_label
 _atom_site_symmetry_multiplicity
 _atom_site_fract_x
 _atom_site_fract_y
 _atom_site_fract_z
 _atom_site_occupancy
  O  O0  1  0.00000000  0.25000000  0.55555556  1.0
  O  O1  1  0.50000000  0.25000000  0.72222222  1.0
  O  O2  1  0.75000000  0.00000000  0.80555556  1.0
  O  O3  1  0.75000000  0.50000000  0.63888889  1.0
  O  O4  1  0.50000000  0.75000000  0.72222222  1.0
  O  O5  1  0.00000000  0.75000000  0.55555556  1.0
  O  O6  1  0.25000000  0.50000000  0.63888889  1.0
  O  O7  1  0.25000000  0.00000000  0.80555556  1.0
  O  O8  1  0.00000000  0.25000000  0.22222222  1.0
  O  O9  1  0.50000000  0.25000000  0.38888889  1.0
  O  O10  1  0.75000000  0.00000000  0.47222222  1.0
  O  O11  1  0.75000000  0.50000000  0.30555556  1.0
  O  O12  1  0.50000000  0.75000000  0.38888889  1.0
  O  O13  1  0.00000000  0.75000000  0.22222222  1.0
  O  O14  1  0.25000000  0.50000000  0.30555556  1.0
  O  O15  1  0.25000000  0.00000000  0.47222222  1.0
  Si  Si16  1  0.50000000  0.00000000  0.76388889  1.0
  Si  Si17  1  0.50000000  0.50000000  0.68055556  1.0
  Si  Si18  1  0.00000000  0.50000000  0.59722222  1.0
  Si  Si19  1  1.00000000  0.00000000  0.51388889  1.0
  Si  Si20  1  0.50000000  0.00000000  0.43055556  1.0
  Si  Si21  1  0.50000000  0.50000000  0.34722222  1.0
  Si  Si22  1  0.00000000  0.50000000  0.26388889  1.0
  Si  Si23  1  1.00000000  0.00000000  0.18055556  1.0
